tests/data/power_flow/non-floating-ground-no-error/nrse/zigzag_n-wye/asym_output.json
{
  "version": "1.0",
  "type": "asym_output",
  "is_batch": false,
  "attributes": {},
  "data": {
    "node": [
      {"id": 1, "energized": 1, "u_pu": [0.99999999922683913, 1.0000000000696649, 0.99999999952651641], "u": [5773.5026874324112, 5773.502692298468, 5773.5026891625985], "u_angle": [6.2731918531407557e-10, -2.0943951019064446, 2.0943951022203224], "p": [34375.183223876047, -131148.54063942371, 152347.75230101013], "q": [330096.3279722748, 98308.172690498846, 70854.500469207938]},
      {"id": 2, "energized": 1, "u_pu": [0.0049003381328730803, 0.0049410195971993651, 1.4866214842473346], "u": [0.28292115401344609, 0.28526989945142694, 85.830131411327969], "u_angle": [-0.6867842221578877, 2.4651496568095781, 1.5635931154009413], "p": [-1000.0000000000002, -1000.0000000000002, -4000.0000000000073], "q": [-1000.0000000000002, -1000.0000000000003, -3999.999999999814]}
    ],
    "transformer": [
      {"id": 4, "energized": 1, "loading": 6.63803549463836, "p_from": [34375.183223876047, -131148.54063942371, 152347.75230101013], "q_from": [330096.3279722748, 98308.172690498846, 70854.500469207938], "i_from": [57.483538286915156, 28.388960808306724, 29.101648352616039], "s_from": [331881.36278262851, 163903.74165831454, 168018.44502289302], "p_to": [-1000.0000000000002, -1000.0000000000002, -4000.0000000000073], "q_to": [-1000.0000000000002, -1000.0000000000003, -3999.999999999814], "i_to": [4998.6137208597829, 4957.4580602181422, 65.907556664251544], "s_to": [1414.2135623730956, 1414.2135623730956, 5656.8542494922531]}
    ],
    "source": [
      {"id": 3, "energized": 1, "p": [34375.183223876047, -131148.54063942371, 152347.75230101016], "q": [330096.3279722748, 98308.172690498846, 70854.500469207938], "i": [57.483538286915156, 28.388960808306724, 29.101648352616046], "s": [331881.36278262851, 163903.74165831454, 168018.44502289305], "pf": [0.10357672071628402, -0.80015586778259973, 0.90673230715980191]}
    ],
    "asym_load": [
      {"id": 21, "energized": 1, "p": [1000, 1000, 4000], "q": [1000, 1000, 4000], "i": [4998.613720859782, 4957.4580602181404, 65.907556664253008], "s": [1414.2135623730949, 1414.2135623730949, 5656.8542494923795], "pf": [0.70710678118654757, 0.70710678118654757, 0.70710678118654757]}
    ]
  }
}